/*--------------------------------*- C++ -*----------------------------------*\
| =========                 |                                                 |
| \\      /  F ield         | OpenFOAM v2512                                  |
|  \\    /   O peration     | Case: Monobobsleights                           |
|   \\  /    A nd           | Author: Diep Thanh Phuong                       |
|    \\/     M anipulation  |                                                 |
\*---------------------------------------------------------------------------*/
FoamFile
{
  version            2.0;
  format             ascii;
  class              volScalarField;
  object             nut;
}
// * * * * * * * * * * * * * * * * * * * * * * * * * * * * * * * * * * * * * //

dimensions           [0 2 -1 0 0 0 0];

internalField        uniform 0;

boundaryField
{
  inlet
  {
    type             calculated;
    value            $internalField;
  }

  outlet
  {
    type             calculated;
    value            $internalField;
  }

  bottom
  {
    type             calculated;
    value            $internalField;
  }

  "(top|front|back)"
  {
    type             symmetryPlane;
  }

  monobob
  {
    type             nutUSpaldingWallFunction;
    value            $internalField;
  }
}


// ************************************************************************* //
