/*--------------------------------*- C++ -*----------------------------------*\
| =========                 |                                                 |
| \\      /  F ield         | OpenFOAM v2512                                  |
|  \\    /   O peration     | Case: Monobobsleights                           |
|   \\  /    A nd           | Author: Diep Thanh Phuong                       |
|    \\/     M anipulation  |                                                 |
\*---------------------------------------------------------------------------*/
FoamFile
{
  version          2.0;
  format           ascii;
  class            dictionary;
  object           blockMeshDict;
}
// * * * * * * * * * * * * * * * * * * * * * * * * * * * * * * * * * * * * * //

scale 1.0;

vertices
(
  (-10    -5 -0.01)
  (-10  -0.5 -0.01)
  (-10   0.5 -0.01)
  (-10     5 -0.01)

  (-1.5   -5 -0.01)
  (-1.5 -0.5 -0.01)
  (-1.5  0.5 -0.01)
  (-1.5    5 -0.01)

  ( 1.5   -5 -0.01)
  ( 1.5 -0.5 -0.01)
  ( 1.5  0.5 -0.01)
  ( 1.5    5 -0.01)

  (30     -5 -0.01)
  (30   -0.5 -0.01)
  (30    0.5 -0.01)
  (30      5 -0.01)

  (-10    -5   0.8)
  (-10  -0.5   0.8)
  (-10   0.5   0.8)
  (-10     5   0.8)

  (-1.5   -5   0.8)
  (-1.5 -0.5   0.8)
  (-1.5  0.5   0.8)
  (-1.5    5   0.8)

  ( 1.5   -5   0.8)
  ( 1.5 -0.5   0.8)
  ( 1.5  0.5   0.8)
  ( 1.5    5   0.8)

  (30     -5   0.8)
  (30   -0.5   0.8)
  (30    0.5   0.8)
  (30      5   0.8)

  (-10    -5    10)
  (-10  -0.5    10)
  (-10   0.5    10)
  (-10     5    10)

  (-1.5   -5    10)
  (-1.5 -0.5    10)
  (-1.5  0.5    10)
  (-1.5    5    10)

  ( 1.5   -5    10)
  ( 1.5 -0.5    10)
  ( 1.5  0.5    10)
  ( 1.5    5    10)

  (30     -5    10)
  (30   -0.5    10)
  (30    0.5    10)
  (30      5    10)
);

blocks
(
  hex (0   4  5  1 16 20 21 17) (5   5 20) simpleGrading (1 1 1)
  hex (1   5  6  2 17 21 22 18) (5  20 20) simpleGrading (1 1 1)
  hex (2   6  7  3 18 22 23 19) (5   5 20) simpleGrading (1 1 1)
  
  hex (4   8  9  5 20 24 25 21) (60  5 20) simpleGrading (1 1 1)
  hex (5   9 10  6 21 25 26 22) (60 20 20) simpleGrading (1 1 1)
  hex (6  10 11  7 22 26 27 23) (60  5 20) simpleGrading (1 1 1)

  hex (8  12 13  9 24 28 29 25) (5   5 20) simpleGrading (1 1 1)
  hex (9  13 14 10 25 29 30 26) (5  20 20) simpleGrading (1 1 1)
  hex (10 14 15 11 26 30 31 27) (5   5 20) simpleGrading (1 1 1)

  hex (16 20 21 17 32 36 37 33) (5   5  5) simpleGrading (1 1 1)
  hex (17 21 22 18 33 37 38 34) (5  20  5) simpleGrading (1 1 1)
  hex (18 22 23 19 34 38 39 35) (5  5   5) simpleGrading (1 1 1)
  
  hex (20 24 25 22 36 40 41 37) (60  5  5) simpleGrading (1 1 1)
  hex (21 25 26 22 37 41 42 38) (60 20  5) simpleGrading (1 1 1)
  hex (22 26 27 23 38 42 43 39) (60  5  5) simpleGrading (1 1 1)

  hex (24 28 29 25 40 44 45 41) (5   5  5) simpleGrading (1 1 1)
  hex (25 29 30 26 41 45 46 42) (5  20  5) simpleGrading (1 1 1)
  hex (26 30 31 27 42 46 47 43) (5   5  5) simpleGrading (1 1 1)
);

edges
(
);

boundary
(
  inlet
  {
    type patch;
    faces
    (
      (0  16 17  1)
      (1  17 18  2)
      (2  18 19  3)
      (16 32 33 17)
      (17 33 34 18)
      (18 34 35 19)
    );
  }

  outlet
  {
    type patch;
    faces
    (
      (13 29 28 12)
      (14 30 29 13)
      (15 31 30 14)
      (29 45 44 28)
      (30 46 45 29)
      (31 47 46 30)
    );
  }

  top
  {
    type symmetryPlane;
    faces
    (
      (32 36 37 33)
      (33 37 38 34)
      (34 38 39 35)
      (36 40 41 37)
      (37 41 42 38)
      (38 42 43 39)
      (40 44 45 41)
      (41 45 46 42)
      (42 46 47 43)
    );
  }

  bottom
  {
    type wall;
    faces
    (
      (0   1  5  4)
      (1   2  6  5)
      (2   3  7  6)
      (4   5  9  8)
      (5   6 10  9)
      (6   7 11 10)
      (8   9 13 12)
      (9  10 14 13)
      (10 11 15 14)
    );
  }

  front
  {
    type symmetryPlane;
    faces
    (
      (0   4 20 16)
      (4   8 24 20)
      (8  12 28 24)
      (16 20 36 32)
      (20 24 40 36)
      (24 28 44 40)
    );
  }
  back
  {
    type symmetryPlane;
    faces
    (
      (3  19 23  7)
      (7  23 27 11)
      (11 27 31 15)
      (19 35 39 23)
      (23 39 43 27)
      (27 43 47 31)
    );
  }
);


// ************************************************************************* //
