/*--------------------------------*- C++ -*----------------------------------*\
| =========                 |                                                 |
| \\      /  F ield         | OpenFOAM v2512                                  |
|  \\    /   O peration     | Case: Monobobsleights                           |
|   \\  /    A nd           | Author: Diep Thanh Phuong                       |
|    \\/     M anipulation  |                                                 |
\*---------------------------------------------------------------------------*/
FoamFile
{
  version          2.0;
  format           ascii;
  class            dictionary;
  object           blockMeshDict;
}
// * * * * * * * * * * * * * * * * * * * * * * * * * * * * * * * * * * * * * //

scale 1.0;

vertices
(
  (-5 -2.5 0)
  (-2 -2.5 0)
  ( 2 -2.5 0)
  (20 -2.5 0)

  (-5  2.5 0)
  (-2  2.5 0)
  ( 2  2.5 0)
  (20  2.5 0)

  (-5 -2.5 4)
  (-2 -2.5 4)
  ( 2 -2.5 4)
  (20 -2.5 4)

  (-5  2.5 4)
  (-2  2.5 4)
  ( 2  2.5 4)
  (20  2.5 4)
);

blocks
(
  hex (0 1 5 4  8  9 13 12) (20  20 20) simpleGrading (1   1 1)
  hex (1 2 6 5  9 10 14 13) (80  20 20) simpleGrading (1   1 1)
  hex (2 3 7 6 10 11 15 14) (120 20 20) simpleGrading (1.2 1 1)
);

edges
(
);

boundary
(
  inlet
  {
    type patch;
    faces
    (
      (0 8 12 4)
    );
  }
  outlet
  {
    type patch;
    faces
    (
      (3 7 15 11)
    );
  }
  top
  {
    type patch;
    faces
    (
      (8   9 13 12)
      (9  10 14 13)
      (10 11 15 14)
    );
  }
  bottom
  {
    type wall;
    faces
    (
      (0 4 5 1)
      (1 5 6 2)
      (2 6 7 3)
    );
  }
  front
  {
    type patch;
    faces
    (
      (0 1 9   8)
      (1 2 10  9)
      (2 3 11 10)
    );
  }
  back
  {
    type patch;
    faces
    (
      (4 12 13 5)
      (5 13 14 6)
      (6 14 15 7)
    );
  }
);


// ************************************************************************* //
