/*--------------------------------*- C++ -*----------------------------------*\
| =========                 |                                                 |
| \\      /  F ield         | OpenFOAM v2512                                  |
|  \\    /   O peration     | Case: Monobobsleights                           |
|   \\  /    A nd           | Author: Diep Thanh Phuong                       |
|    \\/     M anipulation  |                                                 |
\*---------------------------------------------------------------------------*/
FoamFile
{
  version            2.0;
  format             ascii;
  class              dictionary;
  object             controlDict;
}
// * * * * * * * * * * * * * * * * * * * * * * * * * * * * * * * * * * * * * //


application          pimpleFoam;

startFrom            latestTime;

startTime            0;

stopAt               endTime;

endTime              1.0;

deltaT               1e-4;

writeControl         timeStep;

writeInterval        100;

adjustTimeStep       yes;

maxCo                0.99;

purgeWrite           0;

writeFormat          ascii;

writePrecision       6;

writeCompression     on;

timeFormat           general;

timePrecision        6;

runTimeModifiable    true;

functions
{
  forces
  {
    type             forces;
    libs             ("libforces.so");

    patches          (monobob);

    rho              rhoInf;
    rhoInf           1.225;
    CofR             (0 0 0);

    log              true;
    writeControl     timeStep;
    writeInterval    1;
  }

  yPlus
  {
    type             yPlus;
    libs             ("libfieldFunctionObjects.so");
 
    writeControl     timeStep;
    writeInterval    1;
    log              yes;
  }
}


// ************************************************************************* //
