/*--------------------------------*- C++ -*----------------------------------*\
| =========                 |                                                 |
| \\      /  F ield         | OpenFOAM v2512                                  |
|  \\    /   O peration     | Case: Monobobsleights                           |
|   \\  /    A nd           | Author: Diep Thanh Phuong                       |
|    \\/     M anipulation  |                                                 |
\*---------------------------------------------------------------------------*/
FoamFile
{
  version            2.0;
  format             ascii;
  class              dictionary;
  object             fvSchemes;
}
// * * * * * * * * * * * * * * * * * * * * * * * * * * * * * * * * * * * * * //

ddtSchemes
{
  default            steadyState;
}

gradSchemes
{
  default            Gauss linear;

  grad(U)            cellLimited Gauss linear 1;
  grad(k) 	         cellLimited Gauss linear 1;
  grad(omega) 	     cellLimited Gauss linear 1;
  grad(p) 	         cellLimited Gauss linear 0.333;
//  grad(nuTilda)      cellLimited Gauss linear 1;
}

divSchemes
{
  default                       none;

  div(phi,U)                    bounded Gauss linearUpwindV grad(U);
  div(phi,k) 		                bounded Gauss upwind;
  div(phi,omega) 		            bounded Gauss upwind;
  div((nuEff*dev2(T(grad(U))))) Gauss linear;
  div(div(phi,U))   	          Gauss linear;
//  div(phi,nuTilda)              bounded Gauss upwind;
}

laplacianSchemes
{
  default            Gauss linear limited 0.5;
}

interpolationSchemes
{
  default            skewCorrected linear;
}

snGradSchemes
{
  default            limited 0.5;
}

wallDist
{
  method             meshWave;
}


// ************************************************************************* //
