/*--------------------------------*- C++ -*----------------------------------*\
| =========                 |                                                 |
| \\      /  F ield         | OpenFOAM v2512                                  |
|  \\    /   O peration     | Case: Monobobsleights                           |
|   \\  /    A nd           | Author: Diep Thanh Phuong                       |
|    \\/     M anipulation  |                                                 |
\*---------------------------------------------------------------------------*/
FoamFile
{
  version            2.0;
  format             ascii;
  class              dictionary;
  object             fvSolution;
}
// * * * * * * * * * * * * * * * * * * * * * * * * * * * * * * * * * * * * * //

solvers
{
  p
  {
    solver                 GAMG;
    tolerance              1e-07;
    relTol                 0.01;
    smoother               GaussSeidel;
    cacheAgglomeration     true;
    nCellsInCoarsestLevel  20;
    agglomerator           faceAreaPair;
    mergeLevels            1;
  }

  pFinal
  {
    $p;
    tolerance              1e-08;
    relTol                 0;
  }

  "(U|nuTilda)"
  {
    solver                 smoothSolver;
    tolerance              1e-08;
    relTol                 0.1;
    smoother               symGaussSeidel;
  }

  "(U|nuTilda)Final"
  {
    $U;
    relTol                 0;
  }
}

PIMPLE
{
  momentumPredictor         yes;
  nOuterCorrectors          2;
  nCorrectors               2;
  nNonOrthogonalCorrectors  1;
  consistent                yes;
}

relaxationFactors
{
  equations
  {
    p                0.3;
    U                0.7;
    nuTilda          0.7;
  }
}

cache
{
  grad(U);
}


// ************************************************************************* //
