/*--------------------------------*- C++ -*----------------------------------*\
| =========                 |                                                 |
| \\      /  F ield         | OpenFOAM v2512                                  |
|  \\    /   O peration     | Case: Monobobsleights                           |
|   \\  /    A nd           | Author: Diep Thanh Phuong                       |
|    \\/     M anipulation  |                                                 |
\*---------------------------------------------------------------------------*/
FoamFile
{
  version            2.0;
  format             ascii;
  class              dictionary;
  object             snappyHexMeshDict;
}
// * * * * * * * * * * * * * * * * * * * * * * * * * * * * * * * * * * * * * //

castellatedMesh      true;
snap                 true;
addLayers            true;

geometry
{
  monobob.stl
  {
    type triSurfaceMesh;
    name monobob;
  }

  wake
  {
    type searchableBox;
    min  (-1.5 -1.2  0.0);
    max  ( 4.0  1.2  1.5);
  }

  separation
  {
    type searchableBox;
    min  (-2.0 -1.8  0.0);
    max  ( 8.0  1.8  2.5);
  }

  body
  {
    type searchableBox;
    min  (-1.5 -0.9  0.0);
    max  ( 1.5  0.9  0.8);
  }
}

castellatedMeshControls
{
  maxLocalCells               500000;
  maxGlobalCells              10000000;
  minRefinementCells          0;
  nCellsBetweenLevels         5;
  resolveFeatureAngle         30.0;
  allowFreeStandingZoneFaces  true;
  planarAngle                 30.0;
  maxLoadUnbalance            0.10;
  locationInMesh              (5.00001 1.00001 1.00001);

  features
  (
    {
      file "monobob.eMesh";
      level 6;
    }
  );

  refinementSurfaces
  {
    monobob
    {
      level (6 6);
      patchInfo
      {
        type wall;
        inGroups (monobobGroup);
      }
    }
  }

  resolveFeatureAngle 30;

  refinementRegions
  {
    wake       { mode inside; levels ((1E15 4)); }
    separation { mode inside; levels ((1e15 3)); }
    body       { mode inside; levels ((1e15 5)); }
  }
}

snapControls
{
  nSmoothPatch           3;
  tolerance              2.0;
  nSolveIter             30;
  nRelaxIter             10;
  nFeatureSnapIter       10;
  implicitFeatureSnap    false;
  explicitFeatureSnap    true;
  multiRegionFeatureSnap false;
}

addLayersControls
{
  relativeSizes             false;

  layers
  {
    "monobob.*"
    {
      nSurfaceLayers        10;
      firstLayerThickness   5e-4;
      expansionRatio        1.3;
      minThickness          1e-4;
    }

    bottom
    {
      nSurfaceLayers        8;
      firstLayerThickness   5e-5;
      expansionRatio        1.3;
      minThickness          1e-4;
    }
  }

  nGrow                     2;

  featureAngle              45;

  maxFaceThicknessRatio     0.3;

  nSmoothSurfaceNormals     5;
  nSmoothNormals            3;
  nSmoothThickness          10;

  slipFeatureAngle          30.0;
  nRelaxIter                5;

  maxThicknessToMedialRatio 0.3;

  minMedialAxisAngle        90;
  minMedianAxisAngle        90;

  nBufferCellsNoExtrude     0;
  nLayerIter                50;
  nRelaxedIter              20;
}

meshQualityControls
{
  #include "meshQualityDict"
  nSmoothScale 4;
  errorReduction 0.75;

  relaxed
  {
    maxNonOrtho 75;
  }
}

writeFlags
(
  scalarLevels
  layerSets
  layerFields
);

mergeTolerance 1.0E-6;


// * * * * * * * * * * * * * * * * * * * * * * * * * * * * * * * * * * * * * //
